! Generated by BlenderFDS 4.2.0 on Blender 2.79 (sub 0)
! Case: uni-build_s2 (from Blender Scene)
! Description: Faculty building, scenario 2, fire at floor +1
! Date: Fri, 11 May 2018, 16:34:13
! File: /home/egissi/git/blenderfds/examples/uni-build/uni-build.blend

&HEAD CHID='uni-build_s2' TITLE='Faculty building, scenario 2, fire at floor +1' /
&TIME T_END=0. /
&MISC FYI='Setting ambient temperature' OVERWRITE=.FALSE. THICKEN_OBSTRUCTIONS=.FALSE. TMPA=20. /
&REAC FUEL='NZ C-VM2 pre-fo' FYI='NZ C-VM2, Table 2.1, pre-flashover design fire' FORMULA='C2H4O1' CO_YIELD=0.040 SOOT_YIELD=0.070 HEAT_OF_COMBUSTION=20000.0 /
! Output is dumped every 2.00 s
&DUMP RENDER_FILE='uni-build_s2.ge1' STATUS_FILES=.TRUE. NFRAMES=600 DT_RESTART=600 /

! --- Free text: 'HEAD free text (s1, s2)'

&MATL ID='Gypsum plaster', CONDUCTIVITY=0.48,
      SPECIFIC_HEAT=0.84, DENSITY=1440. /
      Thermo-physical properties of gypsum plaster.

&PROP ID='Acme smoke detector', QUANTITY='CHAMBER OBSCURATION',
      LENGTH=1.8, ACTIVATION_OBSCURATION=3.28 /
      
&ISOF QUANTITY='TEMPERATURE', VALUE(1)=60. /
&ISOF QUANTITY='VISIBILITY', VALUE(1)=10. /
&BNDF QUANTITY='ADIABATIC SURFACE TEMPERATURE' /

! --- Boundary conditions (from Blender Materials)

! HRR(t) has a t² ramp
&SURF ID='Burner' FYI='Est.d area 5.00 m², HRR max 2000 kW, fast t² ramp (EN)' RGB=134,0,0 HRRPUA=400.000 TAU_Q=-212.1 /
&SURF ID='Glass pane' RGB=0,204,201 TRANSPARENCY=0.200 /
&SURF ID='Gypsum wall' RGB=110,111,82 MATL_ID='Gypsum plaster' THICKNESS=0.020 /

! --- Geometric entities (from Blender Objects)

! -- 00 Domain: This is the domain of simulation
! 1701000 mesh cells of size 0.250x0.250x0.250 m
&MESH ID='Domain' IJK=252,125,54 XB=-31.500,31.500,-14.750,16.500,0.000,13.500 /
! 5 planes
&VENT ID='Domain bc_0' PBX=-31.500 SURF_ID='OPEN' /
&VENT ID='Domain bc_1' PBX=31.500 SURF_ID='OPEN' /
&VENT ID='Domain bc_2' PBY=-14.750 SURF_ID='OPEN' /
&VENT ID='Domain bc_3' PBY=16.500 SURF_ID='OPEN' /
&VENT ID='Domain bc_4' PBZ=13.500 SURF_ID='OPEN' /
&VENT ID='Ground' SURF_ID='INERT' PBZ=0.000 /

&OBST ID='01 Burner at f1' FYI='5 m2 on fire' SURF_ID='Burner' XB=6.500,7.500,-1.500,-0.500,4.400,5.400 /
! -- 02 Building: 
! 10 voxels, resolution 0.100 m, in 0 s
&OBST ID='Back walls_0' XB=-2.101,-1.999,13.799,14.101,3.099,4.401 SURF_ID='Gypsum wall' /
&OBST ID='Back walls_1' XB=-2.101,-1.999,15.099,15.301,3.099,4.401 SURF_ID='Gypsum wall' /
&OBST ID='Back walls_2' XB=-2.101,2.101,15.299,15.401,3.099,4.401 SURF_ID='Gypsum wall' /
&OBST ID='Back walls_3' XB=-2.101,2.101,15.299,15.401,7.499,8.501 SURF_ID='Gypsum wall' /
&OBST ID='Back walls_4' XB=1.999,2.101,13.799,14.101,3.099,4.401 SURF_ID='Gypsum wall' /
&OBST ID='Back walls_5' XB=1.999,2.101,15.099,15.301,3.099,4.401 SURF_ID='Gypsum wall' /
&OBST ID='Back walls_6' XB=-2.101,-1.999,14.099,15.101,3.099,3.301 SURF_ID='Gypsum wall' /
&OBST ID='Back walls_7' XB=-2.101,-1.999,13.799,15.301,7.499,8.501 SURF_ID='Gypsum wall' /
&OBST ID='Back walls_8' XB=1.999,2.101,14.099,15.101,3.099,3.301 SURF_ID='Gypsum wall' /
&OBST ID='Back walls_9' XB=1.999,2.101,13.799,15.301,7.499,8.501 SURF_ID='Gypsum wall' /
! 98 voxels, resolution 0.100 m, in 0 s
&OBST ID='Columns_0' XB=-30.201,-29.799,-13.701,-13.299,-0.001,3.101 SURF_ID='Gypsum wall' /
&OBST ID='Columns_1' XB=-30.201,-29.799,-13.701,-13.299,4.399,7.501 SURF_ID='Gypsum wall' /
&OBST ID='Columns_2' XB=-30.201,-29.799,-1.701,-1.299,-0.001,3.101 SURF_ID='Gypsum wall' /
&OBST ID='Columns_3' XB=-25.201,-24.799,-13.701,-13.299,-0.001,3.101 SURF_ID='Gypsum wall' /
&OBST ID='Columns_4' XB=-25.201,-24.799,-13.701,-13.299,4.399,7.501 SURF_ID='Gypsum wall' /
&OBST ID='Columns_5' XB=-20.101,-19.799,-13.701,-13.299,-0.001,3.101 SURF_ID='Gypsum wall' /
&OBST ID='Columns_6' XB=-20.101,-19.799,-13.701,-13.299,4.399,7.501 SURF_ID='Gypsum wall' /
&OBST ID='Columns_7' XB=-15.201,-14.799,-13.701,-13.299,-0.001,3.101 SURF_ID='Gypsum wall' /
&OBST ID='Columns_8' XB=-15.201,-14.799,-13.701,-13.299,4.399,7.501 SURF_ID='Gypsum wall' /
&OBST ID='Columns_9' XB=-25.201,-24.799,-1.701,-1.299,-0.001,3.101 SURF_ID='Gypsum wall' /
&OBST ID='Columns_10' XB=-25.201,-24.799,-2.201,-1.299,4.399,7.101 SURF_ID='Gypsum wall' /
&OBST ID='Columns_11' XB=-20.201,-19.799,-2.201,-1.299,-0.001,2.701 SURF_ID='Gypsum wall' /
&OBST ID='Columns_12' XB=-20.201,-19.799,-2.201,-1.299,4.399,7.101 SURF_ID='Gypsum wall' /
&OBST ID='Columns_13' XB=-15.201,-14.799,-2.201,-1.299,-0.001,2.701 SURF_ID='Gypsum wall' /
&OBST ID='Columns_14' XB=-15.201,-14.799,-2.201,-1.299,4.399,7.101 SURF_ID='Gypsum wall' /
&OBST ID='Columns_15' XB=-10.201,-9.799,-13.701,-13.299,-0.001,3.101 SURF_ID='Gypsum wall' /
&OBST ID='Columns_16' XB=-10.201,-9.799,-13.701,-13.299,4.399,7.501 SURF_ID='Gypsum wall' /
&OBST ID='Columns_17' XB=-5.201,-4.899,-13.701,-13.299,-0.001,3.101 SURF_ID='Gypsum wall' /
&OBST ID='Columns_18' XB=-5.201,-4.899,-13.701,-13.299,4.399,7.501 SURF_ID='Gypsum wall' /
&OBST ID='Columns_19' XB=-10.201,-9.799,-2.201,-1.299,-0.001,2.701 SURF_ID='Gypsum wall' /
! ... 78 like lines cut
! 91 voxels, resolution 0.100 m, in 0 s
&OBST ID='External stairs_0' XB=-35.501,-33.699,1.799,2.101,0.299,0.401 SURF_ID='Gypsum wall' /
&OBST ID='External stairs_1' XB=-35.501,-33.699,1.499,1.801,0.199,0.301 SURF_ID='Gypsum wall' /
&OBST ID='External stairs_2' XB=-35.501,-33.699,2.099,2.401,0.499,0.601 SURF_ID='Gypsum wall' /
&OBST ID='External stairs_3' XB=-35.501,-33.699,2.699,3.001,0.799,0.901 SURF_ID='Gypsum wall' /
&OBST ID='External stairs_4' XB=-35.501,-33.699,3.199,3.501,1.099,1.201 SURF_ID='Gypsum wall' /
&OBST ID='External stairs_5' XB=-35.501,-33.699,3.499,3.801,1.299,1.401 SURF_ID='Gypsum wall' /
&OBST ID='External stairs_6' XB=-35.501,-33.699,2.899,3.201,0.999,1.101 SURF_ID='Gypsum wall' /
&OBST ID='External stairs_7' XB=-35.501,-33.699,4.099,4.401,1.599,1.701 SURF_ID='Gypsum wall' /
&OBST ID='External stairs_8' XB=-35.501,-33.699,4.299,4.601,1.799,1.901 SURF_ID='Gypsum wall' /
&OBST ID='External stairs_9' XB=-35.501,-33.699,3.799,4.101,1.399,1.501 SURF_ID='Gypsum wall' /
&OBST ID='External stairs_10' XB=-35.501,-33.699,2.399,2.701,0.599,0.701 SURF_ID='Gypsum wall' /
&OBST ID='External stairs_11' XB=-32.901,-30.299,-0.401,-0.299,4.299,4.401 SURF_ID='Gypsum wall' /
&OBST ID='External stairs_12' XB=30.299,33.501,-0.401,-0.299,4.299,4.401 SURF_ID='Gypsum wall' /
&OBST ID='External stairs_13' XB=-32.801,-30.299,-0.501,-0.399,4.299,4.401 SURF_ID='Gypsum wall' /
&OBST ID='External stairs_14' XB=30.299,33.401,-0.501,-0.399,4.299,4.401 SURF_ID='Gypsum wall' /
&OBST ID='External stairs_15' XB=-33.301,-30.299,-0.001,0.101,4.299,4.401 SURF_ID='Gypsum wall' /
&OBST ID='External stairs_16' XB=30.299,33.901,-0.001,0.101,4.299,4.401 SURF_ID='Gypsum wall' /
&OBST ID='External stairs_17' XB=-33.201,-30.299,-0.101,0.001,4.299,4.401 SURF_ID='Gypsum wall' /
&OBST ID='External stairs_18' XB=30.299,33.801,-0.101,0.001,4.299,4.401 SURF_ID='Gypsum wall' /
&OBST ID='External stairs_19' XB=-33.401,-30.299,0.099,1.001,4.299,4.401 SURF_ID='Gypsum wall' /
! ... 71 like lines cut
! 107 voxels, resolution 0.100 m, in 0 s
&OBST ID='Internal stairs_0' XB=-1.901,-0.099,9.799,10.201,4.099,4.201 SURF_ID='Gypsum wall' /
&OBST ID='Internal stairs_1' XB=-1.901,-0.099,10.099,10.501,3.899,4.001 SURF_ID='Gypsum wall' /
&OBST ID='Internal stairs_2' XB=-1.901,-0.099,9.999,10.501,3.999,4.101 SURF_ID='Gypsum wall' /
&OBST ID='Internal stairs_3' XB=-1.901,-0.099,10.499,10.801,3.699,3.801 SURF_ID='Gypsum wall' /
&OBST ID='Internal stairs_4' XB=-1.901,-0.099,10.599,11.101,3.599,3.701 SURF_ID='Gypsum wall' /
&OBST ID='Internal stairs_5' XB=-1.901,-0.099,10.299,10.801,3.799,3.901 SURF_ID='Gypsum wall' /
&OBST ID='Internal stairs_6' XB=-1.901,-0.099,11.099,11.601,3.299,3.401 SURF_ID='Gypsum wall' /
&OBST ID='Internal stairs_7' XB=-1.901,-0.099,11.299,11.601,3.199,3.301 SURF_ID='Gypsum wall' /
&OBST ID='Internal stairs_8' XB=-1.901,-0.099,10.799,11.301,3.499,3.601 SURF_ID='Gypsum wall' /
&OBST ID='Internal stairs_9' XB=-1.901,-0.099,10.999,11.301,3.399,3.501 SURF_ID='Gypsum wall' /
&OBST ID='Internal stairs_10' XB=-1.901,1.901,7.899,9.701,4.299,4.401 SURF_ID='Gypsum wall' /
&OBST ID='Internal stairs_11' XB=-1.901,-0.099,9.699,9.901,4.299,4.401 SURF_ID='Gypsum wall' /
&OBST ID='Internal stairs_12' XB=0.099,1.901,9.699,10.101,4.299,4.401 SURF_ID='Gypsum wall' /
&OBST ID='Internal stairs_13' XB=-1.901,-0.099,10.999,11.301,7.299,7.401 SURF_ID='Gypsum wall' /
&OBST ID='Internal stairs_14' XB=-1.901,-0.099,11.299,11.601,7.099,7.201 SURF_ID='Gypsum wall' /
&OBST ID='Internal stairs_15' XB=-1.901,-0.099,11.199,11.601,7.199,7.301 SURF_ID='Gypsum wall' /
&OBST ID='Internal stairs_16' XB=-1.901,-0.099,9.599,10.201,8.099,8.201 SURF_ID='Gypsum wall' /
&OBST ID='Internal stairs_17' XB=-1.901,-0.099,9.799,10.201,7.999,8.101 SURF_ID='Gypsum wall' /
&OBST ID='Internal stairs_18' XB=-1.901,-0.099,9.299,9.601,8.299,8.501 SURF_ID='Gypsum wall' /
&OBST ID='Internal stairs_19' XB=-1.901,-0.099,9.499,9.901,8.199,8.301 SURF_ID='Gypsum wall' /
! ... 87 like lines cut
! 8 voxels, resolution 0.100 m, in 0 s
&OBST ID='Panels transparent_0' XB=-1.601,-0.499,-1.601,-1.499,9.599,12.201 SURF_ID='Glass pane' /
&OBST ID='Panels transparent_1' XB=-0.501,0.501,-1.601,-1.499,9.599,12.301 SURF_ID='Glass pane' /
&OBST ID='Panels transparent_2' XB=-1.601,-0.499,1.399,1.501,9.599,12.201 SURF_ID='Glass pane' /
&OBST ID='Panels transparent_3' XB=-0.501,0.501,1.399,1.501,9.599,12.301 SURF_ID='Glass pane' /
&OBST ID='Panels transparent_4' XB=0.499,1.501,-1.601,-1.499,9.599,12.201 SURF_ID='Glass pane' /
&OBST ID='Panels transparent_5' XB=0.499,1.501,1.399,1.501,9.599,12.201 SURF_ID='Glass pane' /
&OBST ID='Panels transparent_6' XB=-1.601,-1.499,-1.501,1.401,9.599,12.201 SURF_ID='Glass pane' /
&OBST ID='Panels transparent_7' XB=1.399,1.501,-1.501,1.401,9.599,12.201 SURF_ID='Glass pane' /
! 731 voxels, resolution 0.100 m, in 6 s
&OBST ID='Walls int ext_0' XB=-30.301,-29.499,-13.801,-13.699,-0.001,3.101 SURF_ID='Gypsum wall' /
&OBST ID='Walls int ext_1' XB=-30.301,-29.499,-13.801,-13.699,4.399,7.501 SURF_ID='Gypsum wall' /
&OBST ID='Walls int ext_2' XB=-29.501,-25.499,-13.801,-13.699,-0.001,1.001 SURF_ID='Gypsum wall' /
&OBST ID='Walls int ext_3' XB=-29.501,-25.499,-13.801,-13.699,2.999,3.101 SURF_ID='Gypsum wall' /
&OBST ID='Walls int ext_4' XB=-29.501,-25.499,-13.801,-13.699,4.399,5.501 SURF_ID='Gypsum wall' /
&OBST ID='Walls int ext_5' XB=-30.301,-30.199,-13.701,-11.999,-0.001,3.101 SURF_ID='Gypsum wall' /
&OBST ID='Walls int ext_6' XB=-30.301,-30.199,-13.701,-11.999,4.399,7.501 SURF_ID='Gypsum wall' /
&OBST ID='Walls int ext_7' XB=-30.301,-30.199,-8.001,-6.999,-0.001,3.101 SURF_ID='Gypsum wall' /
&OBST ID='Walls int ext_8' XB=-30.301,-30.199,-8.001,-6.999,4.399,7.501 SURF_ID='Gypsum wall' /
&OBST ID='Walls int ext_9' XB=-30.301,-29.699,-2.001,-1.899,-0.001,3.101 SURF_ID='Gypsum wall' /
&OBST ID='Walls int ext_10' XB=-30.301,-30.199,-1.301,-0.999,4.399,7.501 SURF_ID='Gypsum wall' /
&OBST ID='Walls int ext_11' XB=-28.901,-24.399,-2.001,-1.899,-0.001,3.101 SURF_ID='Gypsum wall' /
&OBST ID='Walls int ext_12' XB=-30.301,-29.799,-2.301,-1.299,4.399,7.501 SURF_ID='Gypsum wall' /
&OBST ID='Walls int ext_13' XB=-29.701,-28.899,-2.001,-1.899,2.199,3.101 SURF_ID='Gypsum wall' /
&OBST ID='Walls int ext_14' XB=-28.601,-18.899,-2.301,-2.199,4.399,7.501 SURF_ID='Gypsum wall' /
&OBST ID='Walls int ext_15' XB=-30.301,-30.199,-3.001,-1.999,-0.001,3.101 SURF_ID='Gypsum wall' /
&OBST ID='Walls int ext_16' XB=-30.301,-30.199,-3.001,-2.299,4.399,7.501 SURF_ID='Gypsum wall' /
&OBST ID='Walls int ext_17' XB=-30.301,-30.199,-7.001,-2.999,-0.001,1.101 SURF_ID='Gypsum wall' /
&OBST ID='Walls int ext_18' XB=-30.301,-30.199,-7.001,-2.999,2.999,3.101 SURF_ID='Gypsum wall' /
&OBST ID='Walls int ext_19' XB=-30.301,-30.199,-7.001,-2.999,4.399,5.501 SURF_ID='Gypsum wall' /
! ... 711 like lines cut
! 31 voxels, resolution 0.100 m, in 0 s
&OBST ID='Walls stairs_0' XB=-0.101,0.101,9.399,9.501,4.399,8.301 SURF_ID='Gypsum wall' /
&OBST ID='Walls stairs_1' XB=-0.101,0.101,9.599,9.701,4.399,8.101 SURF_ID='Gypsum wall' /
&OBST ID='Walls stairs_2' XB=-0.101,0.101,9.499,9.601,4.399,8.201 SURF_ID='Gypsum wall' /
&OBST ID='Walls stairs_3' XB=-0.101,0.301,9.299,9.401,4.399,8.501 SURF_ID='Gypsum wall' /
&OBST ID='Walls stairs_4' XB=-0.101,0.101,9.799,9.901,4.199,8.001 SURF_ID='Gypsum wall' /
&OBST ID='Walls stairs_5' XB=-0.101,0.101,9.999,10.101,4.299,7.901 SURF_ID='Gypsum wall' /
&OBST ID='Walls stairs_6' XB=-0.101,0.101,9.899,10.001,4.299,8.001 SURF_ID='Gypsum wall' /
&OBST ID='Walls stairs_7' XB=-0.101,0.101,10.099,10.301,4.399,7.801 SURF_ID='Gypsum wall' /
&OBST ID='Walls stairs_8' XB=-0.101,0.101,10.299,10.501,4.499,7.701 SURF_ID='Gypsum wall' /
&OBST ID='Walls stairs_9' XB=-0.101,0.101,10.599,10.801,4.699,7.501 SURF_ID='Gypsum wall' /
&OBST ID='Walls stairs_10' XB=-0.101,0.101,10.799,11.001,4.799,7.401 SURF_ID='Gypsum wall' /
&OBST ID='Walls stairs_11' XB=-0.101,0.101,10.499,10.601,4.599,7.601 SURF_ID='Gypsum wall' /
&OBST ID='Walls stairs_12' XB=-0.101,0.101,10.999,11.101,4.899,7.301 SURF_ID='Gypsum wall' /
&OBST ID='Walls stairs_13' XB=-0.101,0.101,11.199,11.301,4.999,7.201 SURF_ID='Gypsum wall' /
&OBST ID='Walls stairs_14' XB=-0.101,0.101,11.099,11.201,4.999,7.301 SURF_ID='Gypsum wall' /
&OBST ID='Walls stairs_15' XB=-0.101,0.101,9.699,9.801,4.199,8.101 SURF_ID='Gypsum wall' /
&OBST ID='Walls stairs_16' XB=-0.101,0.101,11.299,11.501,5.099,7.101 SURF_ID='Gypsum wall' /
&OBST ID='Walls stairs_17' XB=-0.101,0.101,11.499,11.701,5.199,7.001 SURF_ID='Gypsum wall' /
&OBST ID='Walls stairs_18' XB=-0.101,0.101,11.799,12.001,5.399,6.801 SURF_ID='Gypsum wall' /
&OBST ID='Walls stairs_19' XB=-0.101,0.101,11.999,12.201,5.499,6.701 SURF_ID='Gypsum wall' /
! ... 11 like lines cut

! -- 03 Roof: 
! 168 voxels, resolution 0.100 m, in 4 s
&OBST ID='Floors_0' XB=-30.301,30.301,-13.801,-2.099,3.099,4.401 SURF_ID='Gypsum wall' /
&OBST ID='Floors_1' XB=-30.301,-1.199,-2.101,-1.999,3.099,4.401 SURF_ID='Gypsum wall' /
&OBST ID='Floors_2' XB=1.199,30.301,-2.101,-1.999,3.099,4.401 SURF_ID='Gypsum wall' /
&OBST ID='Floors_3' XB=-30.301,-1.399,-1.901,-1.799,3.099,4.401 SURF_ID='Gypsum wall' /
&OBST ID='Floors_4' XB=1.399,30.301,-1.901,-1.799,3.099,4.401 SURF_ID='Gypsum wall' /
&OBST ID='Floors_5' XB=-30.301,-1.599,-1.701,-1.599,3.099,4.401 SURF_ID='Gypsum wall' /
&OBST ID='Floors_6' XB=1.599,30.301,-1.701,-1.599,3.099,4.401 SURF_ID='Gypsum wall' /
&OBST ID='Floors_7' XB=-30.301,-1.499,-1.801,-1.699,3.099,4.401 SURF_ID='Gypsum wall' /
&OBST ID='Floors_8' XB=1.499,30.301,-1.801,-1.699,3.099,4.401 SURF_ID='Gypsum wall' /
&OBST ID='Floors_9' XB=-30.301,-1.299,-2.001,-1.899,3.099,4.401 SURF_ID='Gypsum wall' /
&OBST ID='Floors_10' XB=1.299,30.301,-2.001,-1.899,3.099,4.401 SURF_ID='Gypsum wall' /
&OBST ID='Floors_11' XB=-30.301,-1.799,-1.501,-1.399,3.099,4.401 SURF_ID='Gypsum wall' /
&OBST ID='Floors_12' XB=1.799,30.301,-1.501,-1.399,3.099,4.401 SURF_ID='Gypsum wall' /
&OBST ID='Floors_13' XB=-30.301,-1.999,-1.301,-1.199,3.099,4.401 SURF_ID='Gypsum wall' /
&OBST ID='Floors_14' XB=1.999,30.301,-1.301,-1.199,3.099,4.401 SURF_ID='Gypsum wall' /
&OBST ID='Floors_15' XB=-30.301,-1.899,-1.401,-1.299,3.099,4.401 SURF_ID='Gypsum wall' /
&OBST ID='Floors_16' XB=1.899,30.301,-1.401,-1.299,3.099,4.401 SURF_ID='Gypsum wall' /
&OBST ID='Floors_17' XB=-30.301,-2.199,-1.101,1.101,3.099,4.401 SURF_ID='Gypsum wall' /
&OBST ID='Floors_18' XB=2.099,30.301,-1.201,1.201,3.099,4.401 SURF_ID='Gypsum wall' /
&OBST ID='Floors_19' XB=-30.301,-2.099,-1.201,-1.099,3.099,4.401 SURF_ID='Gypsum wall' /
! ... 148 like lines cut
&DEVC ID='Roof break' FYI='Break the roof' QUANTITY='TEMPERATURE' SETPOINT=150.000 INITIAL_STATE=.TRUE. XYZ=0.000,0.000,12.027 /
! 104 voxels, resolution 0.100 m, in 0 s
&OBST ID='Roof round_0' XB=-5.301,-5.199,-4.601,13.801,11.199,11.301 SURF_ID='Gypsum wall' /
&OBST ID='Roof round_1' XB=-5.201,-4.899,-4.601,13.801,11.299,11.401 SURF_ID='Gypsum wall' /
&OBST ID='Roof round_2' XB=-4.901,-4.699,-4.601,13.801,11.399,11.501 SURF_ID='Gypsum wall' /
&OBST ID='Roof round_3' XB=-5.001,-4.899,-4.601,13.601,11.399,11.501 SURF_ID='Gypsum wall' /
&OBST ID='Roof round_4' XB=-4.701,-4.599,-4.601,13.701,11.499,11.601 SURF_ID='Gypsum wall' /
&OBST ID='Roof round_5' XB=-4.601,-4.399,-4.601,13.801,11.499,11.601 SURF_ID='Gypsum wall' /
&OBST ID='Roof round_6' XB=-4.101,-3.699,-4.601,13.801,11.699,11.801 SURF_ID='Gypsum wall' /
&OBST ID='Roof round_7' XB=-4.401,-4.099,-4.601,13.801,11.599,11.701 SURF_ID='Gypsum wall' /
&OBST ID='Roof round_8' XB=-3.301,-3.199,-4.601,13.201,11.899,12.001 SURF_ID='Gypsum wall' /
&OBST ID='Roof round_9' XB=-3.301,-3.199,13.399,13.801,11.899,12.001 SURF_ID='Gypsum wall' /
&OBST ID='Roof round_10' XB=-3.201,-2.899,-4.601,13.801,11.899,12.001 SURF_ID='Gypsum wall' /
&OBST ID='Roof round_11' XB=-2.901,-2.799,-4.601,13.201,11.999,12.101 SURF_ID='Gypsum wall' /
&OBST ID='Roof round_12' XB=-2.801,-2.399,-4.601,13.801,11.999,12.101 SURF_ID='Gypsum wall' /
&OBST ID='Roof round_13' XB=-2.301,-2.199,-4.601,-2.299,12.099,12.201 SURF_ID='Gypsum wall' /
&OBST ID='Roof round_14' XB=-2.301,-2.199,-2.001,13.801,12.099,12.201 SURF_ID='Gypsum wall' /
&OBST ID='Roof round_15' XB=-2.101,-1.699,-4.601,15.401,12.099,12.201 SURF_ID='Gypsum wall' /
&OBST ID='Roof round_16' XB=-2.201,-2.099,-4.601,13.801,12.099,12.201 SURF_ID='Gypsum wall' /
&OBST ID='Roof round_17' XB=-1.701,-1.599,-4.601,-3.999,12.199,12.301 SURF_ID='Gypsum wall' /
&OBST ID='Roof round_18' XB=-1.701,-1.599,-1.601,15.401,12.199,12.301 SURF_ID='Gypsum wall' /
&OBST ID='Roof round_19' XB=-2.401,-2.299,-4.401,-2.699,12.099,12.201 SURF_ID='Gypsum wall' /
! ... 84 like lines cut
&OBST ID='Roof transparent' SURF_ID='Glass pane' XB=-1.550,1.550,-1.550,1.550,12.174,12.360 DEVC_ID='Roof break' /

! -- 05 Output: 
! 2 planes
&SLCF ID='Slcf temp_0' PBX=0.000 QUANTITY='TEMPERATURE' VECTOR=.TRUE. /
&SLCF ID='Slcf temp_1' PBY=-0.000 QUANTITY='TEMPERATURE' VECTOR=.TRUE. /
! 2 planes
&SLCF ID='Slcf visibility_0' PBX=0.000 QUANTITY='VISIBILITY' /
&SLCF ID='Slcf visibility_1' PBY=-0.000 QUANTITY='VISIBILITY' /
&DEVC ID='Smoke detector' PROP_ID='Acme smoke detector' XYZ=5.000,0.000,2.500 /



&TAIL /
! Generated in 11 s.