! Generated by BlenderFDS 4.2.0 on Blender 2.79 (sub 0)
! Case: geom_sphere_fire_BF (from Blender Scene)
! Description: Demo of BlenderFDS, created by sphere_fire_demo.blender
! Date: Fri, 19 Jan 2018, 17:10:49
! File: C:\Users\eng4\Desktop\BlenderFDS\examples\geometry\geom_sphere_fire_BF.blend

&HEAD CHID='geom_sphere_fire_BF'
      TITLE='Demo of BlenderFDS, created by sphere_fire_demo.blender'
      /
&TIME T_BEGIN=0.0
      T_END=10.0
      /
&MISC OVERWRITE=.TRUE.
      THICKEN_OBSTRUCTIONS=.FALSE.
      CC_IBM=.TRUE.
      /
&REAC FUEL='PROPANE'
      SOOT_YIELD=0.010
      /

! --- Free text: 'HEAD free text'

&MATL ID='matl1',
      DENSITY=1000., CONDUCTIVITY=1., SPECIFIC_HEAT=1.,
      RGB=64,128,255
      /
&BNDE QUANTITY='GAS TEMPERATURE' /
&RADI RADIATION=.FALSE. /

&SLCF QUANTITY='TEMPERATURE',   FACE_CENTERED=.TRUE., SLICETYPE='EXIMBND_FACES'    /
&SLCF QUANTITY='TEMPERATURE',   FACE_CENTERED=.TRUE., SLICETYPE='CUT_CELLS'    /

! --- Boundary conditions (from Blender Materials)

&SURF ID='fire'
      RGB=255,0,0
      HRRPUA=1000.
      /
&SURF ID='sphere'
      RGB=0,255,0
      /

! --- Geometric entities (from Blender Objects)

! 32768 mesh cells of size 0.125x0.125x0.125 m
&MESH ID='Domain'
      IJK=32,32,32
      XB=-2.000,2.000,-2.000,2.000,0.000,4.000
      /
! 5 planes
&VENT ID='Domain bc_0'
      PBX=-2.000
      SURF_ID='OPEN'
      /
&VENT ID='Domain bc_1'
      PBX=2.000
      SURF_ID='OPEN'
      /
&VENT ID='Domain bc_2'
      PBY=-2.000
      SURF_ID='OPEN'
      /
&VENT ID='Domain bc_3'
      PBY=2.000
      SURF_ID='OPEN'
      /
&VENT ID='Domain bc_4'
      PBZ=4.000
      SURF_ID='OPEN'
      /
&SLCF ID='SLCF div'
      QUANTITY='DIVERGENCE'
      PBY=0.000
      CELL_CENTERED=.TRUE.
      /
&SLCF ID='SLCF mf'
      QUANTITY='MASS FRACTION'
      PBY=0.000
      SPEC_ID='PROPANE' CELL_CENTERED=.TRUE.
      /
&SLCF ID='SLCF temp'
      QUANTITY='TEMPERATURE'
      PBY=0.000
      CELL_CENTERED=.TRUE.
      /
&SLCF ID='SLCF velocity'
      QUANTITY='VELOCITY'
      VECTOR=.TRUE.
      PBY=0.000
      /
! 114 vertices, 224 faces
&GEOM ID='Sphere'
      SURF_ID='sphere'
      VERTS=
            0.000,0.383,2.924,
            0.000,0.707,2.707,
            0.000,0.924,2.383,
            0.000,1.000,2.000,
            0.000,0.924,1.617,
            0.000,0.707,1.293,
            0.000,0.383,1.076,
            0.000,0.000,1.000,
            -0.000,0.000,3.000,
            0.146,0.354,2.924,
            0.271,0.653,2.707,
            0.354,0.854,2.383,
            0.383,0.924,2.000,
            0.354,0.854,1.617,
            0.271,0.653,1.293,
            0.146,0.354,1.076,
            0.271,0.271,2.924,
            0.500,0.500,2.707,
            0.653,0.653,2.383,
            0.707,0.707,2.000,
! ... 94 like lines cut
      FACES=
            1,9,10,
            8,7,16,
            6,5,14,
            6,14,15,
            4,3,13,
            3,12,13,
            2,1,11,
            1,10,11,
            7,6,15,
            7,15,16,
            5,4,13,
            5,13,14,
            3,2,12,
            2,11,12,
            13,12,20,
            12,19,20,
            11,10,18,
            10,17,18,
            16,15,22,
            16,22,23,
! ... 204 like lines cut
      /
&VENT ID='burner'
      SURF_ID='fire'
      XB=-1.000,1.000,-1.000,1.000,0.000,0.000
      /


&TAIL /
! Generated in 0 s.