! Generated by BlenderFDS 4.3.0 on Blender 2.79 (sub 0)
! Case: uni-build_s1 (from Blender Scene)
! Description: Faculty building, scenario 1, fire at floor 0
! Date: Sun, 23 Sep 2018, 18:41:57
! File: /home/egissi/github/blenderfds/examples/uni-build/uni-build.blend

&HEAD CHID='uni-build_s1'
      TITLE='Faculty building, scenario 1, fire at floor 0'
      /
&TIME T_END=0.
      /
&MISC FYI='Setting ambient temperature'
      THICKEN_OBSTRUCTIONS=.TRUE.
      TMPA=20.
      /
&REAC FUEL='NZ C-VM2 pre-fo'
      FYI='NZ C-VM2, Table 2.1, pre-flashover design fire'
      FORMULA='C2H4O1'
      CO_YIELD=0.040
      SOOT_YIELD=0.070
      HEAT_OF_COMBUSTION=20000.0
      /
&DUMP RENDER_FILE='uni-build_s1.ge1'
      NFRAMES=1200
      /

! --- Free text: 'HEAD free text (s1, s2)'
&MATL ID='Gypsum plaster', CONDUCTIVITY=0.48,
      SPECIFIC_HEAT=0.84, DENSITY=1440. /
      Thermo-physical properties of gypsum plaster.

&PROP ID='Acme smoke detector', QUANTITY='CHAMBER OBSCURATION',
      LENGTH=1.8, ACTIVATION_OBSCURATION=3.28 /
      
&ISOF QUANTITY='TEMPERATURE', VALUE(1)=60. /
&ISOF QUANTITY='VISIBILITY', VALUE(1)=10. /
&BNDF QUANTITY='ADIABATIC SURFACE TEMPERATURE' /

! --- Boundary conditions (from Blender Materials)
! HRR(t) has a t² ramp
&SURF ID='Burner'
      FYI='Est.d area 5.00 m², HRR max 2000 kW, fast t² ramp (EN)'
      RGB=134,0,0
      HRRPUA=400.000
      TAU_Q=-212.1
      /
&SURF ID='Glass pane'
      RGB=0,204,201
      TRANSPARENCY=0.200
      /
&SURF ID='Gypsum wall'
      RGB=110,111,82
      MATL_ID='Gypsum plaster'
      THICKNESS=0.020000
      /

! --- Geometric entities (from Blender Objects)
! -- 00 Domain: This is the domain of simulation
! 1701000 mesh cells of size 0.250x0.250x0.250 m
&MESH ID='Domain' IJK=252,125,54 XB=-31.500000,31.500000,-14.750001,16.500000,0.000000,13.500000 /
! 5 planes
&VENT ID='Domain bc_0' PBX=-31.500000 SURF_ID='OPEN' /
&VENT ID='Domain bc_1' PBX=31.500000 SURF_ID='OPEN' /
&VENT ID='Domain bc_2' PBY=-14.750001 SURF_ID='OPEN' /
&VENT ID='Domain bc_3' PBY=16.500000 SURF_ID='OPEN' /
&VENT ID='Domain bc_4' PBZ=13.500000 SURF_ID='OPEN' /
&VENT ID='Ground' SURF_ID='INERT' PBZ=0.000000 /

&OBST ID='01 Burner at f0' FYI='5 m2 on fire' SURF_ID='Burner' XB=6.500000,7.500000,-1.500000,-0.500000,0.000000,1.000000 THICKEN=.TRUE. /
! -- 02 Building: 
! 144 voxels, resolution 0.100 m, in 0.016 s
&OBST ID='Back walls_0' XB=1.999990,2.100010,15.299990,15.400010,7.499990,8.500010 SURF_ID='Gypsum wall' /
&OBST ID='Back walls_1' XB=1.999990,2.100010,15.299990,15.400010,3.099990,4.400010 SURF_ID='Gypsum wall' /
&OBST ID='Back walls_2' XB=1.999990,2.100010,15.199990,15.300010,7.499990,8.500010 SURF_ID='Gypsum wall' /
&OBST ID='Back walls_3' XB=1.999990,2.100010,15.199990,15.300010,3.099990,4.400010 SURF_ID='Gypsum wall' /
&OBST ID='Back walls_4' XB=1.999990,2.100010,15.099990,15.200010,7.499990,8.500010 SURF_ID='Gypsum wall' /
&OBST ID='Back walls_5' XB=1.999990,2.100010,15.099990,15.200010,3.099990,4.400010 SURF_ID='Gypsum wall' /
&OBST ID='Back walls_6' XB=1.999990,2.100010,14.999990,15.100010,7.499990,8.500010 SURF_ID='Gypsum wall' /
&OBST ID='Back walls_7' XB=1.999990,2.100010,14.999990,15.100010,3.099990,3.300010 SURF_ID='Gypsum wall' /
&OBST ID='Back walls_8' XB=1.999990,2.100010,14.899990,15.000010,7.499990,8.500010 SURF_ID='Gypsum wall' /
&OBST ID='Back walls_9' XB=1.999990,2.100010,14.899990,15.000010,3.099990,3.300010 SURF_ID='Gypsum wall' /
&OBST ID='Back walls_10' XB=1.999990,2.100010,14.799990,14.900010,7.499990,8.500010 SURF_ID='Gypsum wall' /
&OBST ID='Back walls_11' XB=1.999990,2.100010,14.799990,14.900010,3.099990,3.300010 SURF_ID='Gypsum wall' /
&OBST ID='Back walls_12' XB=1.999990,2.100010,14.699990,14.800010,7.499990,8.500010 SURF_ID='Gypsum wall' /
&OBST ID='Back walls_13' XB=1.999990,2.100010,14.699990,14.800010,3.099990,3.300010 SURF_ID='Gypsum wall' /
&OBST ID='Back walls_14' XB=1.999990,2.100010,14.599990,14.700010,7.499990,8.500010 SURF_ID='Gypsum wall' /
&OBST ID='Back walls_15' XB=1.999990,2.100010,14.599990,14.700010,3.099990,3.300010 SURF_ID='Gypsum wall' /
&OBST ID='Back walls_16' XB=1.999990,2.100010,14.499990,14.600010,7.499990,8.500010 SURF_ID='Gypsum wall' /
&OBST ID='Back walls_17' XB=1.999990,2.100010,14.499990,14.600010,3.099990,3.300010 SURF_ID='Gypsum wall' /
&OBST ID='Back walls_18' XB=1.999990,2.100010,14.399990,14.500010,7.499990,8.500010 SURF_ID='Gypsum wall' /
&OBST ID='Back walls_19' XB=1.999990,2.100010,14.399990,14.500010,3.099990,3.300010 SURF_ID='Gypsum wall' /
! ... 124 like lines cut
! 2102 voxels, resolution 0.100 m, in 0.190 s
&OBST ID='Columns_0' XB=30.099990,30.200010,13.599993,13.700013,4.399994,7.500014 SURF_ID='Gypsum wall' /
&OBST ID='Columns_1' XB=30.099990,30.200010,13.599993,13.700013,-0.000006,3.100014 SURF_ID='Gypsum wall' /
&OBST ID='Columns_2' XB=29.999990,30.100010,13.599993,13.700013,4.399994,7.500014 SURF_ID='Gypsum wall' /
&OBST ID='Columns_3' XB=29.999990,30.100010,13.599993,13.700013,-0.000006,3.100014 SURF_ID='Gypsum wall' /
&OBST ID='Columns_4' XB=29.899990,30.000010,13.599993,13.700013,4.399994,7.500014 SURF_ID='Gypsum wall' /
&OBST ID='Columns_5' XB=29.899990,30.000010,13.599993,13.700013,-0.000006,3.100014 SURF_ID='Gypsum wall' /
&OBST ID='Columns_6' XB=29.799990,29.900010,13.599993,13.700013,4.399994,7.500014 SURF_ID='Gypsum wall' /
&OBST ID='Columns_7' XB=29.799990,29.900010,13.599993,13.700013,-0.000006,3.100014 SURF_ID='Gypsum wall' /
&OBST ID='Columns_8' XB=25.099990,25.200010,13.599993,13.700013,4.399994,7.500014 SURF_ID='Gypsum wall' /
&OBST ID='Columns_9' XB=25.099990,25.200010,13.599993,13.700013,-0.000006,3.100014 SURF_ID='Gypsum wall' /
&OBST ID='Columns_10' XB=24.999990,25.100010,13.599993,13.700013,4.399994,7.500014 SURF_ID='Gypsum wall' /
&OBST ID='Columns_11' XB=24.999990,25.100010,13.599993,13.700013,-0.000006,3.100014 SURF_ID='Gypsum wall' /
&OBST ID='Columns_12' XB=24.899990,25.000010,13.599993,13.700013,4.399994,7.500014 SURF_ID='Gypsum wall' /
&OBST ID='Columns_13' XB=24.899990,25.000010,13.599993,13.700013,-0.000006,3.100014 SURF_ID='Gypsum wall' /
&OBST ID='Columns_14' XB=24.799990,24.900010,13.599993,13.700013,4.399994,7.500014 SURF_ID='Gypsum wall' /
&OBST ID='Columns_15' XB=24.799990,24.900010,13.599993,13.700013,-0.000006,3.100014 SURF_ID='Gypsum wall' /
&OBST ID='Columns_16' XB=19.999990,20.100010,13.599993,13.700013,4.399994,7.500014 SURF_ID='Gypsum wall' /
&OBST ID='Columns_17' XB=19.999990,20.100010,13.599993,13.700013,-0.000006,3.100014 SURF_ID='Gypsum wall' /
&OBST ID='Columns_18' XB=19.899990,20.000010,13.599993,13.700013,4.399994,7.500014 SURF_ID='Gypsum wall' /
&OBST ID='Columns_19' XB=19.899990,20.000010,13.599993,13.700013,-0.000006,3.100014 SURF_ID='Gypsum wall' /
! ... 2082 like lines cut
! 170 voxels, resolution 0.100 m, in 0.039 s
&OBST ID='External stairs_0' XB=32.199987,34.000007,9.899989,10.200009,-0.000013,0.100007 SURF_ID='Gypsum wall' /
&OBST ID='External stairs_1' XB=32.199987,34.000007,9.599989,9.900009,0.199987,0.300007 SURF_ID='Gypsum wall' /
&OBST ID='External stairs_2' XB=32.199987,34.000007,9.299989,9.600009,0.299987,0.400007 SURF_ID='Gypsum wall' /
&OBST ID='External stairs_3' XB=32.199987,34.000007,8.999989,9.300009,0.499987,0.600007 SURF_ID='Gypsum wall' /
&OBST ID='External stairs_4' XB=32.199987,34.000007,8.699989,9.000009,0.599987,0.700007 SURF_ID='Gypsum wall' /
&OBST ID='External stairs_5' XB=32.199987,34.000007,8.399989,8.700009,0.799987,0.900007 SURF_ID='Gypsum wall' /
&OBST ID='External stairs_6' XB=32.199987,34.000007,8.099989,8.400009,0.999987,1.100007 SURF_ID='Gypsum wall' /
&OBST ID='External stairs_7' XB=32.199987,34.000007,7.799989,8.100009,1.099987,1.200007 SURF_ID='Gypsum wall' /
&OBST ID='External stairs_8' XB=32.199987,34.000007,7.499989,7.800009,1.299987,1.400007 SURF_ID='Gypsum wall' /
&OBST ID='External stairs_9' XB=32.199987,34.000007,7.199989,7.500009,1.399987,1.500007 SURF_ID='Gypsum wall' /
&OBST ID='External stairs_10' XB=-34.600014,-32.599994,6.899989,7.000009,2.099987,2.200007 SURF_ID='Gypsum wall' /
&OBST ID='External stairs_11' XB=32.199987,34.000007,6.899989,7.200009,1.599987,1.700007 SURF_ID='Gypsum wall' /
&OBST ID='External stairs_12' XB=-34.700014,-32.499994,6.799989,6.900009,2.099987,2.200007 SURF_ID='Gypsum wall' /
&OBST ID='External stairs_13' XB=-34.800014,-32.399994,6.699989,6.800009,2.099987,2.200007 SURF_ID='Gypsum wall' /
&OBST ID='External stairs_14' XB=-34.900014,-32.299994,6.599989,6.700009,2.099987,2.200007 SURF_ID='Gypsum wall' /
&OBST ID='External stairs_15' XB=32.199987,34.000007,6.599989,6.900009,1.799987,1.900007 SURF_ID='Gypsum wall' /
&OBST ID='External stairs_16' XB=-35.000014,-32.199994,6.499989,6.600009,2.099987,2.200007 SURF_ID='Gypsum wall' /
&OBST ID='External stairs_17' XB=-35.100014,-32.099994,6.399989,6.500009,2.099987,2.200007 SURF_ID='Gypsum wall' /
&OBST ID='External stairs_18' XB=-35.200014,-31.999994,6.299989,6.400009,2.099987,2.200007 SURF_ID='Gypsum wall' /
&OBST ID='External stairs_19' XB=32.199987,34.000007,6.299989,6.600009,1.899987,2.000007 SURF_ID='Gypsum wall' /
! ... 150 like lines cut
! 119 voxels, resolution 0.100 m, in 0.046 s
&OBST ID='Internal stairs_0' XB=-2.000010,2.000010,13.799989,15.300010,6.299990,6.500010 SURF_ID='Gypsum wall' THICKEN=.TRUE. /
&OBST ID='Internal stairs_1' XB=-2.000010,2.000010,13.799989,15.300010,1.999990,2.200010 SURF_ID='Gypsum wall' THICKEN=.TRUE. /
&OBST ID='Internal stairs_2' XB=-1.900010,1.900010,13.099989,13.800009,6.299990,6.500010 SURF_ID='Gypsum wall' THICKEN=.TRUE. /
&OBST ID='Internal stairs_3' XB=-1.900010,1.900010,13.099989,13.800009,1.999990,2.200010 SURF_ID='Gypsum wall' THICKEN=.TRUE. /
&OBST ID='Internal stairs_4' XB=-1.900010,-0.099990,12.999989,13.400009,2.199990,2.300010 SURF_ID='Gypsum wall' THICKEN=.TRUE. /
&OBST ID='Internal stairs_5' XB=-1.900010,-0.099990,12.899989,13.400009,2.299990,2.400010 SURF_ID='Gypsum wall' THICKEN=.TRUE. /
&OBST ID='Internal stairs_6' XB=0.099990,1.900010,12.799989,13.400009,6.199990,6.300010 SURF_ID='Gypsum wall' THICKEN=.TRUE. /
&OBST ID='Internal stairs_7' XB=0.099990,1.900010,12.799989,13.200009,6.099990,6.200010 SURF_ID='Gypsum wall' THICKEN=.TRUE. /
&OBST ID='Internal stairs_8' XB=0.099990,1.900010,12.799989,13.300009,1.899990,2.000010 SURF_ID='Gypsum wall' THICKEN=.TRUE. /
&OBST ID='Internal stairs_9' XB=-1.900010,-0.099990,12.699989,13.100009,6.299990,6.400010 SURF_ID='Gypsum wall' THICKEN=.TRUE. /
&OBST ID='Internal stairs_10' XB=-1.900010,-0.099990,12.699989,13.100009,2.399990,2.500010 SURF_ID='Gypsum wall' THICKEN=.TRUE. /
&OBST ID='Internal stairs_11' XB=0.099990,1.900010,12.599989,13.000009,5.999990,6.100010 SURF_ID='Gypsum wall' THICKEN=.TRUE. /
&OBST ID='Internal stairs_12' XB=0.099990,1.900010,12.599989,12.800009,5.899990,6.000010 SURF_ID='Gypsum wall' THICKEN=.TRUE. /
&OBST ID='Internal stairs_13' XB=0.099990,1.900010,12.599989,13.100009,1.799990,1.900010 SURF_ID='Gypsum wall' THICKEN=.TRUE. /
&OBST ID='Internal stairs_14' XB=0.099990,1.900010,12.599989,12.900009,1.699990,1.800010 SURF_ID='Gypsum wall' THICKEN=.TRUE. /
&OBST ID='Internal stairs_15' XB=-1.900010,-0.099990,12.499989,13.100009,6.399990,6.500010 SURF_ID='Gypsum wall' THICKEN=.TRUE. /
&OBST ID='Internal stairs_16' XB=-1.900010,-0.099990,12.499989,12.800009,2.499990,2.600010 SURF_ID='Gypsum wall' THICKEN=.TRUE. /
&OBST ID='Internal stairs_17' XB=-1.900010,-0.099990,12.399989,12.800009,6.499990,6.600010 SURF_ID='Gypsum wall' THICKEN=.TRUE. /
&OBST ID='Internal stairs_18' XB=0.099990,1.900010,12.299989,12.700009,5.799990,5.900010 SURF_ID='Gypsum wall' THICKEN=.TRUE. /
&OBST ID='Internal stairs_19' XB=-1.900010,-0.099990,12.299989,12.800009,2.599990,2.700010 SURF_ID='Gypsum wall' THICKEN=.TRUE. /
! ... 99 like lines cut
! 8 voxels, resolution 0.100 m, in 0.021 s
&OBST ID='Panels transparent_0' XB=1.399990,1.500010,-1.500010,1.400010,9.599991,12.200011 SURF_ID='Glass pane' THICKEN=.TRUE. /
&OBST ID='Panels transparent_1' XB=0.499990,1.500010,1.399990,1.500010,9.599991,12.200011 SURF_ID='Glass pane' THICKEN=.TRUE. /
&OBST ID='Panels transparent_2' XB=0.499990,1.500010,-1.600010,-1.499990,9.599991,12.200011 SURF_ID='Glass pane' THICKEN=.TRUE. /
&OBST ID='Panels transparent_3' XB=-0.500010,0.500010,1.399990,1.500010,9.599991,12.300011 SURF_ID='Glass pane' THICKEN=.TRUE. /
&OBST ID='Panels transparent_4' XB=-0.500010,0.500010,-1.600010,-1.499990,9.599991,12.300011 SURF_ID='Glass pane' THICKEN=.TRUE. /
&OBST ID='Panels transparent_5' XB=-1.600010,-0.499990,1.399990,1.500010,9.599991,12.200011 SURF_ID='Glass pane' THICKEN=.TRUE. /
&OBST ID='Panels transparent_6' XB=-1.600010,-1.499990,-1.500010,1.400010,9.599991,12.200011 SURF_ID='Glass pane' THICKEN=.TRUE. /
&OBST ID='Panels transparent_7' XB=-1.600010,-0.499990,-1.600010,-1.499990,9.599991,12.200011 SURF_ID='Glass pane' THICKEN=.TRUE. /
! 8849 voxels, resolution 0.100 m, in 1.738 s
&OBST ID='Walls int ext_0' XB=30.199991,30.300011,13.699993,13.800013,4.399986,7.500006 SURF_ID='Gypsum wall' /
&OBST ID='Walls int ext_1' XB=30.199991,30.300011,13.699993,13.800013,-0.000014,3.100006 SURF_ID='Gypsum wall' /
&OBST ID='Walls int ext_2' XB=30.199991,30.300011,13.599993,13.700013,4.399986,7.500006 SURF_ID='Gypsum wall' /
&OBST ID='Walls int ext_3' XB=30.199991,30.300011,13.599993,13.700013,-0.000014,3.100006 SURF_ID='Gypsum wall' /
&OBST ID='Walls int ext_4' XB=30.199991,30.300011,13.499993,13.600013,4.399986,7.500006 SURF_ID='Gypsum wall' /
&OBST ID='Walls int ext_5' XB=30.199991,30.300011,13.499993,13.600013,-0.000014,3.100006 SURF_ID='Gypsum wall' /
&OBST ID='Walls int ext_6' XB=30.199991,30.300011,13.399993,13.500013,4.399986,7.500006 SURF_ID='Gypsum wall' /
&OBST ID='Walls int ext_7' XB=30.199991,30.300011,13.399993,13.500013,-0.000014,3.100006 SURF_ID='Gypsum wall' /
&OBST ID='Walls int ext_8' XB=30.199991,30.300011,13.299993,13.400013,4.399986,7.500006 SURF_ID='Gypsum wall' /
&OBST ID='Walls int ext_9' XB=30.199991,30.300011,13.299993,13.400013,-0.000014,3.100006 SURF_ID='Gypsum wall' /
&OBST ID='Walls int ext_10' XB=30.199991,30.300011,13.199993,13.300013,4.399986,7.500006 SURF_ID='Gypsum wall' /
&OBST ID='Walls int ext_11' XB=30.199991,30.300011,13.199993,13.300013,-0.000014,3.100006 SURF_ID='Gypsum wall' /
&OBST ID='Walls int ext_12' XB=30.199991,30.300011,13.099993,13.200013,4.399986,7.500006 SURF_ID='Gypsum wall' /
&OBST ID='Walls int ext_13' XB=30.199991,30.300011,13.099993,13.200013,-0.000014,3.100006 SURF_ID='Gypsum wall' /
&OBST ID='Walls int ext_14' XB=30.199991,30.300011,12.999993,13.100013,4.399986,7.500006 SURF_ID='Gypsum wall' /
&OBST ID='Walls int ext_15' XB=30.199991,30.300011,12.999993,13.100013,-0.000014,3.100006 SURF_ID='Gypsum wall' /
&OBST ID='Walls int ext_16' XB=30.199991,30.300011,12.899993,13.000013,4.399986,7.500006 SURF_ID='Gypsum wall' /
&OBST ID='Walls int ext_17' XB=30.199991,30.300011,12.899993,13.000013,-0.000014,3.100006 SURF_ID='Gypsum wall' /
&OBST ID='Walls int ext_18' XB=30.199991,30.300011,12.799993,12.900013,4.399986,7.500006 SURF_ID='Gypsum wall' /
&OBST ID='Walls int ext_19' XB=30.199991,30.300011,12.799993,12.900013,-0.000014,3.100006 SURF_ID='Gypsum wall' /
! ... 8829 like lines cut
! 31 voxels, resolution 0.100 m, in 0.012 s
&OBST ID='Walls stairs_0' XB=-0.100010,0.100010,13.199991,13.400011,6.199990,6.300010 SURF_ID='Gypsum wall' /
&OBST ID='Walls stairs_1' XB=-0.100010,0.100010,12.999991,13.200011,6.099990,6.300010 SURF_ID='Gypsum wall' /
&OBST ID='Walls stairs_2' XB=-0.100010,0.100010,12.799991,13.000011,5.999990,6.300010 SURF_ID='Gypsum wall' /
&OBST ID='Walls stairs_3' XB=-0.100010,0.100010,12.699991,12.800011,5.899990,6.300010 SURF_ID='Gypsum wall' /
&OBST ID='Walls stairs_4' XB=-0.100010,0.100010,12.499991,12.700011,5.799990,6.400010 SURF_ID='Gypsum wall' /
&OBST ID='Walls stairs_5' XB=-0.100010,0.100010,12.399991,12.500011,5.699990,6.500010 SURF_ID='Gypsum wall' /
&OBST ID='Walls stairs_6' XB=-0.100010,0.100010,12.299991,12.400011,5.699990,6.600010 SURF_ID='Gypsum wall' /
&OBST ID='Walls stairs_7' XB=-0.100010,0.100010,12.199991,12.300011,5.599990,6.600010 SURF_ID='Gypsum wall' /
&OBST ID='Walls stairs_8' XB=-0.100010,0.100010,11.999991,12.200011,5.499990,6.700010 SURF_ID='Gypsum wall' /
&OBST ID='Walls stairs_9' XB=-0.100010,0.100010,11.799991,12.000011,5.399990,6.800010 SURF_ID='Gypsum wall' /
&OBST ID='Walls stairs_10' XB=-0.100010,0.100010,11.699991,11.800011,5.299990,6.900010 SURF_ID='Gypsum wall' /
&OBST ID='Walls stairs_11' XB=-0.100010,0.100010,11.499991,11.700011,5.199990,7.000010 SURF_ID='Gypsum wall' /
&OBST ID='Walls stairs_12' XB=-0.100010,0.100010,11.299991,11.500011,5.099990,7.100010 SURF_ID='Gypsum wall' /
&OBST ID='Walls stairs_13' XB=-0.100010,0.100010,11.199991,11.300011,4.999990,7.200010 SURF_ID='Gypsum wall' /
&OBST ID='Walls stairs_14' XB=-0.100010,0.100010,11.099991,11.200011,4.999990,7.300010 SURF_ID='Gypsum wall' /
&OBST ID='Walls stairs_15' XB=-0.100010,0.100010,10.999991,11.100011,4.899990,7.300010 SURF_ID='Gypsum wall' /
&OBST ID='Walls stairs_16' XB=-0.100010,0.100010,10.799991,11.000011,4.799990,7.400010 SURF_ID='Gypsum wall' /
&OBST ID='Walls stairs_17' XB=-0.100010,0.100010,10.599991,10.800011,4.699990,7.500010 SURF_ID='Gypsum wall' /
&OBST ID='Walls stairs_18' XB=-0.100010,0.100010,10.499991,10.600011,4.599990,7.600010 SURF_ID='Gypsum wall' /
&OBST ID='Walls stairs_19' XB=-0.100010,0.100010,10.299991,10.500011,4.499990,7.700010 SURF_ID='Gypsum wall' /
! ... 11 like lines cut

! -- 03 Roof: 
! 4672 voxels, resolution 0.100 m, in 2.243 s
&OBST ID='Floors_0' XB=1.899989,30.300010,13.699989,13.800009,8.399988,8.500008 SURF_ID='Gypsum wall' THICKEN=.TRUE. /
&OBST ID='Floors_1' XB=-30.300011,-1.899991,13.699989,13.800009,8.399988,8.500008 SURF_ID='Gypsum wall' THICKEN=.TRUE. /
&OBST ID='Floors_2' XB=1.899989,30.300010,13.699989,13.800009,8.299988,8.400008 SURF_ID='Gypsum wall' THICKEN=.TRUE. /
&OBST ID='Floors_3' XB=-30.300011,-1.899991,13.699989,13.800009,8.299988,8.400008 SURF_ID='Gypsum wall' THICKEN=.TRUE. /
&OBST ID='Floors_4' XB=1.899989,30.300010,13.699989,13.800009,8.199988,8.300008 SURF_ID='Gypsum wall' THICKEN=.TRUE. /
&OBST ID='Floors_5' XB=-30.300011,-1.899991,13.699989,13.800009,8.199988,8.300008 SURF_ID='Gypsum wall' THICKEN=.TRUE. /
&OBST ID='Floors_6' XB=1.899989,30.300010,13.699989,13.800009,8.099988,8.200008 SURF_ID='Gypsum wall' THICKEN=.TRUE. /
&OBST ID='Floors_7' XB=-30.300011,-1.899991,13.699989,13.800009,8.099988,8.200008 SURF_ID='Gypsum wall' THICKEN=.TRUE. /
&OBST ID='Floors_8' XB=1.899989,30.300010,13.699989,13.800009,7.999988,8.100008 SURF_ID='Gypsum wall' THICKEN=.TRUE. /
&OBST ID='Floors_9' XB=-30.300011,-1.899991,13.699989,13.800009,7.999988,8.100008 SURF_ID='Gypsum wall' THICKEN=.TRUE. /
&OBST ID='Floors_10' XB=1.899989,30.300010,13.699989,13.800009,7.899988,8.000008 SURF_ID='Gypsum wall' THICKEN=.TRUE. /
&OBST ID='Floors_11' XB=-30.300011,-1.899991,13.699989,13.800009,7.899988,8.000008 SURF_ID='Gypsum wall' THICKEN=.TRUE. /
&OBST ID='Floors_12' XB=1.899989,30.300010,13.699989,13.800009,7.799988,7.900008 SURF_ID='Gypsum wall' THICKEN=.TRUE. /
&OBST ID='Floors_13' XB=-30.300011,-1.899991,13.699989,13.800009,7.799988,7.900008 SURF_ID='Gypsum wall' THICKEN=.TRUE. /
&OBST ID='Floors_14' XB=1.899989,30.300010,13.699989,13.800009,7.699988,7.800008 SURF_ID='Gypsum wall' THICKEN=.TRUE. /
&OBST ID='Floors_15' XB=-30.300011,-1.899991,13.699989,13.800009,7.699988,7.800008 SURF_ID='Gypsum wall' THICKEN=.TRUE. /
&OBST ID='Floors_16' XB=1.899989,30.300010,13.699989,13.800009,7.599988,7.700008 SURF_ID='Gypsum wall' THICKEN=.TRUE. /
&OBST ID='Floors_17' XB=-30.300011,-1.899991,13.699989,13.800009,7.599988,7.700008 SURF_ID='Gypsum wall' THICKEN=.TRUE. /
&OBST ID='Floors_18' XB=1.899989,30.300010,13.699989,13.800009,7.499988,7.600008 SURF_ID='Gypsum wall' THICKEN=.TRUE. /
&OBST ID='Floors_19' XB=-30.300011,-1.899991,13.699989,13.800009,7.499988,7.600008 SURF_ID='Gypsum wall' THICKEN=.TRUE. /
! ... 4652 like lines cut
&DEVC ID='Roof break' FYI='Break the roof' QUANTITY='TEMPERATURE' SETPOINT=150.000 INITIAL_STATE=.TRUE. LATCH=.TRUE. XYZ=0.000000,0.000000,12.026861 /
! 152 voxels, resolution 0.100 m, in 0.117 s
&OBST ID='Roof round_0' XB=5.199990,5.300010,-4.600010,13.800010,11.199990,11.300010 SURF_ID='Gypsum wall' /
&OBST ID='Roof round_1' XB=4.899990,5.000010,-4.600010,12.900010,11.399990,11.500010 SURF_ID='Gypsum wall' /
&OBST ID='Roof round_2' XB=4.899990,5.200010,-4.600010,13.800010,11.299990,11.400010 SURF_ID='Gypsum wall' /
&OBST ID='Roof round_3' XB=4.699990,4.900010,-4.600010,13.800010,11.399990,11.500010 SURF_ID='Gypsum wall' /
&OBST ID='Roof round_4' XB=4.599990,4.700010,-4.600010,13.200010,11.499990,11.600010 SURF_ID='Gypsum wall' /
&OBST ID='Roof round_5' XB=4.599990,4.700010,-4.500010,13.800010,11.399990,11.500010 SURF_ID='Gypsum wall' /
&OBST ID='Roof round_6' XB=4.399990,4.600010,-4.600010,13.800010,11.499990,11.600010 SURF_ID='Gypsum wall' /
&OBST ID='Roof round_7' XB=4.299990,4.400010,13.099990,13.800010,11.499990,11.600010 SURF_ID='Gypsum wall' /
&OBST ID='Roof round_8' XB=4.099990,4.400010,-4.600010,13.800010,11.599990,11.700010 SURF_ID='Gypsum wall' /
&OBST ID='Roof round_9' XB=3.999990,4.100010,13.399990,13.800010,11.599990,11.700010 SURF_ID='Gypsum wall' /
&OBST ID='Roof round_10' XB=3.699990,3.800010,13.699990,13.800010,11.799990,11.900010 SURF_ID='Gypsum wall' /
&OBST ID='Roof round_11' XB=3.699990,4.100010,-4.600010,13.800010,11.699990,11.800010 SURF_ID='Gypsum wall' /
&OBST ID='Roof round_12' XB=3.299990,3.700010,-4.600010,13.800010,11.799990,11.900010 SURF_ID='Gypsum wall' /
&OBST ID='Roof round_13' XB=3.199990,3.300010,13.299990,13.800010,11.899990,12.000010 SURF_ID='Gypsum wall' /
&OBST ID='Roof round_14' XB=3.199990,3.300010,-4.600010,13.200010,11.899990,12.000010 SURF_ID='Gypsum wall' /
&OBST ID='Roof round_15' XB=3.199990,3.300010,13.199990,13.400010,11.799990,11.900010 SURF_ID='Gypsum wall' /
&OBST ID='Roof round_16' XB=2.899990,3.200010,-4.600010,13.800010,11.899990,12.000010 SURF_ID='Gypsum wall' /
&OBST ID='Roof round_17' XB=2.799990,2.900010,-4.600010,13.200010,11.999990,12.100010 SURF_ID='Gypsum wall' /
&OBST ID='Roof round_18' XB=2.799990,2.900010,13.099990,13.800010,11.899990,12.000010 SURF_ID='Gypsum wall' /
&OBST ID='Roof round_19' XB=2.399990,2.800010,-4.600010,13.800010,11.999990,12.100010 SURF_ID='Gypsum wall' /
! ... 132 like lines cut
&OBST ID='Roof transparent' SURF_ID='Glass pane' XB=-1.550000,1.550000,-1.550000,1.550000,12.174069,12.360000 THICKEN=.TRUE. DEVC_ID='Roof break' /

! -- 05 Output: 
! 2 planes
&SLCF ID='Slcf temp_0' PBX=0.000000 QUANTITY='TEMPERATURE' VECTOR=.TRUE. /
&SLCF ID='Slcf temp_1' PBY=-0.000000 QUANTITY='TEMPERATURE' VECTOR=.TRUE. /
! 2 planes
&SLCF ID='Slcf visibility_0' PBX=0.000000 QUANTITY='VISIBILITY' /
&SLCF ID='Slcf visibility_1' PBY=-0.000000 QUANTITY='VISIBILITY' /
&DEVC ID='Smoke detector' INITIAL_STATE=.TRUE. LATCH=.TRUE. PROP_ID='Acme smoke detector' XYZ=5.000000,0.000000,2.500000 /


&TAIL /
! Generated in 4 s.